/*--------------------------------*- C++ -*----------------------------------*\
  =========                 |
  \\      /  F ield         | OpenFOAM: The Open Source CFD Toolbox
   \\    /   O peration     | Website:  https://openfoam.org
    \\  /    A nd           | Version:  7
     \\/     M anipulation  |
\*---------------------------------------------------------------------------*/
FoamFile
{
    version     2.0;
    format      ascii;
    class       dictionary;
    location    "system";
    object      controlDict;
}
// * * * * * * * * * * * * * * * * * * * * * * * * * * * * * * * * * * * * * //

// swak4Foam libraries
libs (
      "libOpenFOAM.so"
      "libsimpleSwakFunctionObjects.so"
      "libswakFunctionObjects.so"
      "libgroovyBC.so"
     );

application     rhoReactingCentralFoam;

startFrom       latestTime;

startTime       0;

stopAt          endTime;

//endTime         2.5e-4;
endTime			3e-5;
//endTime				6e-5;

deltaT          1e-10;

writeControl    adjustableRunTime;

//writeInterval   2.5e-5;
writeInterval	1e-6;

purgeWrite      0;

writeFormat     ascii;

writePrecision  8;

writeCompression off;

timeFormat      general;

timePrecision   6;

runTimeModifiable true;

adjustTimeStep  no; // disable for now

maxCo           0.2;
maxDeltaT		0.01;

functions
{
	#includeFunc residuals
}

// ************************************************************************* //
