/*--------------------------------*- C++ -*----------------------------------*\
  =========                 |
  \\      /  F ield         | OpenFOAM: The Open Source CFD Toolbox
   \\    /   O peration     | Website:  https://openfoam.org
    \\  /    A nd           | Version:  7
     \\/     M anipulation  |
\*---------------------------------------------------------------------------*/
FoamFile
{
    version     2.0;
    format      ascii;
    class       dictionary;
    location    "system";
    object      fvSchemes;
}
// * * * * * * * * * * * * * * * * * * * * * * * * * * * * * * * * * * * * * //

fluxScheme		Kurganov;

ddtSchemes
{
    default         Euler;
}

gradSchemes
{
	default         Gauss linear;
}

divSchemes
{
    	default         none;
		div(tauMC)		Gauss linear;
		div(phi,O2)		Gauss vanLeer01;
		div(phi,H2)		Gauss vanLeer01;
		div(phi,H2O)	Gauss vanLeer01;
		div(phi,N2)		Gauss vanLeer01;
}

laplacianSchemes
{
		default			Gauss linear corrected;	
}

interpolationSchemes
{
    	default				linear;
		reconstruct(rho)	vanLeer;
		reconstruct(U)		vanLeerV;
		reconstruct(T)		vanLeer;
		reconstruct(Yi)		vanLeer01;
}

snGradSchemes
{
		default				corrected;
}


// ************************************************************************* //
