/*--------------------------------*- C++ -*----------------------------------*\
  =========                 |
  \\      /  F ield         | OpenFOAM: The Open Source CFD Toolbox
   \\    /   O peration     | Website:  https://openfoam.org
    \\  /    A nd           | Version:  7  
     \\/     M anipulation  |

\*---------------------------------------------------------------------------*/
FoamFile
{
    version     2.0;
    format      ascii;
    class       dictionary;
    location    "constant";
    object      reactions;
}
// * * * * * * * * * * * * * * * * * * * * * * * * * * * * * * * * * * * * * //
//elements
//3
//(
// O
// H
// N
//);

species
4
(
    O2
    H2
    H2O
    N2
);

reactions
{
    hydrogenReaction
    {
        type     irreversibleArrheniusReaction;
        reaction "2H2 + O2 = 2H2O";
        A        7.5e15;
        beta     0;
        Ta       12995; 
    }
}


// ************************************************************************* //
